test.dss
Clear

New Circuit.ALPINE bus1=SourceBus basekv=12 R1=0.063 X1=0.5495 R0=0.0152 X0=1.3295 Sequence=pos
New Linecode.#2_CU_PECN R1=0.1809 X1=0.1441 R0=0.2924 X0=0.4232 Units=kft
New Linecode.#4_CU_PECN R1=0.2875 X1=0.1494 R0=0.4146 X0=0.4681 Units=kft
New Linecode.1C#2CUPECN R1=0.1809 X1=0.1441 R0=0.2924 X0=0.4232 Units=kft
New Linecode.2/0AL_PECN R1=0.1616 X1=0.1478 R0=0.2657 X0=0.4205 Units=kft
New Linecode.2\0AL_PECN R1=0.1616 X1=0.1478 R0=0.2657 X0=0.4205 Units=kft
New Linecode.3_#2_AL_B R1=0.308 X1=0.1596 R0=0.4333 X0=0.4853 Units=kft
New Linecode.3_#2_AL_A R1=0.308 X1=0.1596 R0=0.4333 X0=0.4853 Units=kft
New Linecode.3_#2_AL_C R1=0.308 X1=0.1596 R0=0.4333 X0=0.4853 Units=kft
New Linecode.3_#2_CU_B R1=0.1809 X1=0.1441 R0=0.2924 X0=0.4232 Units=kft
New Linecode.3_#2_CU_A R1=0.1809 X1=0.1441 R0=0.2924 X0=0.4232 Units=kft
New Linecode.3_#2_CU_C R1=0.1809 X1=0.1441 R0=0.2924 X0=0.4232 Units=kft
New Linecode.3_#2A5005C R1=0.308 X1=0.1596 R0=0.4333 X0=0.4853 Units=kft
New Linecode.3_#4_CU_B R1=0.2875 X1=0.1494 R0=0.4146 X0=0.4681 Units=kft
New Linecode.3_#4_CU_A R1=0.2875 X1=0.1494 R0=0.4146 X0=0.4681 Units=kft
New Linecode.3_#4_CU_C R1=0.2875 X1=0.1494 R0=0.4146 X0=0.4681 Units=kft
New Linecode.3_#6_CU_B R1=0.4564 X1=0.1548 R0=0.583 X0=0.5157 Units=kft
New Linecode.3_#6_CU_A R1=0.4564 X1=0.1548 R0=0.583 X0=0.5157 Units=kft
New Linecode.3_#6_CU_C R1=0.4564 X1=0.1548 R0=0.583 X0=0.5157 Units=kft
New Linecode.3_3\0_AL_C R1=0.1208 X1=0.1442 R0=0.2099 X0=0.4008 Units=kft
New Linecode.3_3/0_AL_C R1=0.1208 X1=0.1442 R0=0.2099 X0=0.4008 Units=kft
New Linecode.3_3\0_AL_A R1=0.1208 X1=0.1442 R0=0.2099 X0=0.4008 Units=kft
New Linecode.3_3\0_AL_B R1=0.1208 X1=0.1442 R0=0.2099 X0=0.4008 Units=kft
New Linecode.3_3\0AL_C R1=0.1208 X1=0.1442 R0=0.2099 X0=0.4008 Units=kft
New Linecode.3_3/0AL_C R1=0.1208 X1=0.1442 R0=0.2099 X0=0.4008 Units=kft
New Linecode.3_336_AL_C R1=0.0574 X1=0.1236 R0=0.115 X0=0.3492 Units=kft
New Linecode.3_336_AL_A R1=0.0574 X1=0.1236 R0=0.115 X0=0.3492 Units=kft
New Linecode.3_336_AL_B R1=0.0574 X1=0.1236 R0=0.115 X0=0.3492 Units=kft
New Linecode.3_394_AL_C R1=0.0487 X1=0.1217 R0=0.1002 X0=0.3441 Units=kft
New Linecode.3_394_AL_A R1=0.0487 X1=0.1217 R0=0.1002 X0=0.3441 Units=kft
New Linecode.3_394_AL_B R1=0.0487 X1=0.1217 R0=0.1002 X0=0.3441 Units=kft
New Linecode.3_4\0_CU_C R1=0.1066 X1=0.1407 R0=0.1899 X0=0.3907 Units=kft
New Linecode.3_4/0_CU_C R1=0.1066 X1=0.1407 R0=0.1899 X0=0.3907 Units=kft
New Linecode.3_4\0_CU_A R1=0.1066 X1=0.1407 R0=0.1899 X0=0.3907 Units=kft
New Linecode.3_4\0_CU_B R1=0.1066 X1=0.1407 R0=0.1899 X0=0.3907 Units=kft
New Linecode.3_636_AL_C R1=0.0306 X1=0.1165 R0=0.0609 X0=0.3295 Units=kft
New Linecode.3_636_AL_A R1=0.0306 X1=0.1165 R0=0.0609 X0=0.3295 Units=kft
New Linecode.3_636_AL_B R1=0.0306 X1=0.1165 R0=0.0609 X0=0.3295 Units=kft
New Linecode.3_1/0_CU_C R1=0.115 X1=0.1393 R0=0.203 X0=0.3915 Units=kft
New Linecode.3_1/0_CU_A R1=0.115 X1=0.1393 R0=0.203 X0=0.3915 Units=kft
New Linecode.3_1/0_CU_B R1=0.115 X1=0.1393 R0=0.203 X0=0.3915 Units=kft
New Linecode.750ALPECN R1=0.0265 X1=0.1151 R0=0.0609 X0=0.3295 Units=kft
New Linecode.750APEPJ R1=0.0265 X1=0.1151 R0=0.0609 X0=0.3295 Units=kft
New Linecode.3_1/0_AL_B R1=0.1972 X1=0.1496 R0=0.3108 X0=0.4364 Units=kft
New Linecode.3_1/0_AL_A R1=0.1972 X1=0.1496 R0=0.3108 X0=0.4364 Units=kft
New Linecode.3_1/0_AL_C R1=0.1972 X1=0.1496 R0=0.3108 X0=0.4364 Units=kft
New Linecode.350ALPEPJ R1=0.0557 X1=0.1242 R0=0.1119 X0=0.3499 Units=kft
New Linecode.3_1033A_G R1=0.0201 X1=0.1119 R0=0.0491 X0=0.3232 Units=kft
New Linecode.3_1\0_CU_C R1=0.115 X1=0.1393 R0=0.203 X0=0.3915 Units=kft
New Linecode.3_1\0_CU_A R1=0.115 X1=0.1393 R0=0.203 X0=0.3915 Units=kft
New Linecode.3_1\0_CU_B R1=0.115 X1=0.1393 R0=0.203 X0=0.3915 Units=kft
New Linecode.3_1\0_AL_B R1=0.1972 X1=0.1496 R0=0.3108 X0=0.4364 Units=kft
New Linecode.3_1\0_AL_A R1=0.1972 X1=0.1496 R0=0.3108 X0=0.4364 Units=kft
New Linecode.3_1\0_AL_C R1=0.1972 X1=0.1496 R0=0.3108 X0=0.4364 Units=kft
New Linecode.1000_XLPECN_PEJ_AL R1=0.0265 X1=0.1151 R0=0.0609 X0=0.3295 Units=kft
New Linecode.1000AXLPEP R1=0.0265 X1=0.1151 R0=0.0609 X0=0.3295 Units=kft
New Linecode.1C#2SAPECN R1=0.1809 X1=0.1441 R0=0.2924 X0=0.4232 Units=kft
New Linecode.2ALPECNPID R1=0.1616 X1=0.1478 R0=0.2657 X0=0.4205 Units=kft
New Linecode.3\0&1\0A_E R1=0.1208 X1=0.1442 R0=0.2099 X0=0.4008 Units=kft
New Linecode.4_1/0&1C_E R1=0.2875 X1=0.1494 R0=0.4146 X0=0.4681 Units=kft
New Linecode.4_1\0&1C_E R1=0.2875 X1=0.1494 R0=0.4146 X0=0.4681 Units=kft
New Linecode.4_4&6CU_E R1=0.2875 X1=0.1494 R0=0.4146 X0=0.4681 Units=kft
New Linecode.4/0CU_PECN R1=0.2875 X1=0.1494 R0=0.4146 X0=0.4681 Units=kft
New Linecode.4\0CU_PECN R1=0.2875 X1=0.1494 R0=0.4146 X0=0.4681 Units=kft
New Linecode.CG_Device_Conductor_1500A R1=0.0265 X1=0.1151 R0=0.0609 X0=0.3295 Units=kft
New Linecode.Device_Conductor_100A R1=0.0265 X1=0.1151 R0=0.0609 X0=0.3295 Units=kft
New Linecode.Device_Conductor_10A R1=0.0265 X1=0.1151 R0=0.0609 X0=0.3295 Units=kft
New Linecode.Device_Conductor_125A R1=0.0265 X1=0.1151 R0=0.0609 X0=0.3295 Units=kft
New Linecode.Device_Conductor_150A R1=0.0265 X1=0.1151 R0=0.0609 X0=0.3295 Units=kft
New Linecode.Device_Conductor_15A R1=0.0265 X1=0.1151 R0=0.0609 X0=0.3295 Units=kft
New Linecode.Device_Conductor_18A R1=0.0265 X1=0.1151 R0=0.0609 X0=0.3295 Units=kft
New Linecode.Device_Conductor_200A R1=0.0265 X1=0.1151 R0=0.0609 X0=0.3295 Units=kft
New Linecode.Device_Conductor_20A R1=0.0265 X1=0.1151 R0=0.0609 X0=0.3295 Units=kft
New Linecode.Device_Conductor_25A R1=0.0265 X1=0.1151 R0=0.0609 X0=0.3295 Units=kft
New Linecode.Device_Conductor_300A R1=0.0265 X1=0.1151 R0=0.0609 X0=0.3295 Units=kft
New Linecode.Device_Conductor_30A R1=0.0265 X1=0.1151 R0=0.0609 X0=0.3295 Units=kft
New Linecode.Device_Conductor_40A R1=0.0265 X1=0.1151 R0=0.0609 X0=0.3295 Units=kft
New Linecode.Device_Conductor_50A R1=0.0265 X1=0.1151 R0=0.0609 X0=0.3295 Units=kft
New Linecode.Device_Conductor_560A R1=0.0265 X1=0.1151 R0=0.0609 X0=0.3295 Units=kft
New Linecode.Device_Conductor_5A R1=0.0265 X1=0.1151 R0=0.0609 X0=0.3295 Units=kft
New Linecode.Device_Conductor_600A R1=0.0265 X1=0.1151 R0=0.0609 X0=0.3295 Units=kft
New Linecode.Device_Conductor_60A R1=0.0265 X1=0.1151 R0=0.0609 X0=0.3295 Units=kft
New Linecode.Device_Conductor_630A R1=0.0265 X1=0.1151 R0=0.0609 X0=0.3295 Units=kft
New Linecode.Device_Conductor_65A R1=0.0265 X1=0.1151 R0=0.0609 X0=0.3295 Units=kft
New Linecode.Device_Conductor_75A R1=0.0265 X1=0.1151 R0=0.0609 X0=0.3295 Units=kft
New Linecode.Device_Conductor_80A R1=0.0265 X1=0.1151 R0=0.0609 X0=0.3295 Units=kft
New Linecode.Device_Conductor_900A R1=0.0265 X1=0.1151 R0=0.0609 X0=0.3295 Units=kft
New Linecode.Generic_PM_Conductor R1=0.0265 X1=0.1151 R0=0.0609 X0=0.3295 Units=kft
New Line.0355_03551 LineCode=1000AXLPEP Phases=3 bus1=0355.1.2.3 bus2=03551.1.2.3 Units=Ft Length=111.3
New Line.03551_03552 LineCode=1000AXLPEP Phases=3 bus1=03551.1.2.3 bus2=03552.1.2.3 Units=Ft Length=68.75
New Line.035510_035511 LineCode=3_636_AL_C Phases=3 bus1=035510.1.2.3 bus2=035511.1.2.3 Units=Ft Length=162.3
New Line.035510A_03551001 LineCode=#2_CU_PECN Phases=1 bus1=035510A.1 bus2=03551001.1 Units=Ft Length=66
New Line.035511_035512 LineCode=3_636_AL_C Phases=3 bus1=035511.1.2.3 bus2=035512.1.2.3 Units=Ft Length=138.6
New Line.035512_03551201 LineCode=3_#2_AL_C Phases=3 bus1=035512.1.2.3 bus2=03551201.1.2.3 Units=Ft Length=82.8
New Line.035512_035513 LineCode=3_636_AL_C Phases=3 bus1=035512.1.2.3 bus2=035513.1.2.3 Units=Ft Length=403.3
New Line.03551201_03551202 LineCode=3_#2_AL_C Phases=3 bus1=03551201.1.2.3 bus2=03551202.1.2.3 Units=Ft Length=205.8
New Line.035513_03551306 LineCode=3_#4_CU_C Phases=3 bus1=035513.1.2.3 bus2=03551306.1.2.3 Units=Ft Length=224.9
New Line.035513_03551394 LineCode=3_#6_CU_B Phases=2 bus1=035513.2.3 bus2=03551394.2.3 Units=Ft Length=298.5
New Line.035513_035514 LineCode=3_394_AL_C Phases=3 bus1=035513.1.2.3 bus2=035514.1.2.3 Units=Ft Length=400.5
New Line.03551301_03551305 LineCode=3_#6_CU_B Phases=2 bus1=03551301.1.3 bus2=03551305.1.3 Units=Ft Length=342.8
New Line.03551301A_03551302 LineCode=#2_CU_PECN Phases=2 bus1=03551301A.1.3 bus2=03551302.1.3 Units=Ft Length=334
New Line.03551302_03551303 LineCode=#2_CU_PECN Phases=2 bus1=03551302.1.3 bus2=03551303.1.3 Units=Ft Length=149
New Line.03551302_03551304 LineCode=#2_CU_PECN Phases=2 bus1=03551302.1.3 bus2=03551304.1.3 Units=Ft Length=196
New Line.03551306_03551392 LineCode=3_#6_CU_B Phases=2 bus1=03551306.1.3 bus2=03551392.1.3 Units=Ft Length=154.9
New Line.03551306A_03551307 LineCode=3_#4_CU_C Phases=3 bus1=03551306A.1.2.3 bus2=03551307.1.2.3 Units=Ft Length=374.1
New Line.03551307_03551308 LineCode=3_#4_CU_C Phases=3 bus1=03551307.1.2.3 bus2=03551308.1.2.3 Units=Ft Length=268
New Line.03551308_03551314 LineCode=3_#4_CU_C Phases=3 bus1=03551308.1.2.3 bus2=03551314.1.2.3 Units=Ft Length=428.5
New Line.03551308A_03551309 LineCode=3_#4_CU_B Phases=2 bus1=03551308A.1.3 bus2=03551309.1.3 Units=Ft Length=167.3
New Line.03551308A_03551313 LineCode=3_#2A5005C Phases=2 bus1=03551308A.1.3 bus2=03551313.1.3 Units=Ft Length=178.8
New Line.03551309_03551310 LineCode=3_#2_AL_B Phases=2 bus1=03551309.1.3 bus2=03551310.1.3 Units=Ft Length=162.8
New Line.03551310_03551311 LineCode=3_#2_AL_B Phases=2 bus1=03551310.1.3 bus2=03551311.1.3 Units=Ft Length=168.9
New Line.03551311_03551312 LineCode=3_#2_AL_B Phases=2 bus1=03551311.1.3 bus2=03551312.1.3 Units=Ft Length=312
New Line.03551314_03551315 LineCode=3_#4_CU_C Phases=3 bus1=03551314.1.2.3 bus2=03551315.1.2.3 Units=Ft Length=316.8
New Line.03551314_03551367 LineCode=3_#6_CU_B Phases=2 bus1=03551314.2.3 bus2=03551367.2.3 Units=Ft Length=195.8
New Line.03551315_03551316 LineCode=3_#4_CU_C Phases=3 bus1=03551315.1.2.3 bus2=03551316.1.2.3 Units=Ft Length=447.4
New Line.03551316_03551317 LineCode=3_#4_CU_C Phases=3 bus1=03551316.1.2.3 bus2=03551317.1.2.3 Units=Ft Length=211
New Line.03551317_03551318 LineCode=3_4/0_CU_C Phases=3 bus1=03551317.1.2.3 bus2=03551318.1.2.3 Units=Ft Length=339
New Line.03551318_03551319 LineCode=3_#4_CU_C Phases=3 bus1=03551318.1.2.3 bus2=03551319.1.2.3 Units=Ft Length=204
New Line.03551318_03551365 LineCode=3_#4_CU_B Phases=2 bus1=03551318.1.3 bus2=03551365.1.3 Units=Ft Length=197
New Line.03551319_03551320 LineCode=3_#4_CU_C Phases=3 bus1=03551319.1.2.3 bus2=03551320.1.2.3 Units=Ft Length=238.4
New Line.03551320_03551321 LineCode=3_#4_CU_C Phases=3 bus1=03551320.1.2.3 bus2=03551321.1.2.3 Units=Ft Length=222.1
New Line.03551321_03551322 LineCode=3_#4_CU_C Phases=3 bus1=03551321.1.2.3 bus2=03551322.1.2.3 Units=Ft Length=252.2
New Line.03551322_03551323 LineCode=3_#4_CU_C Phases=3 bus1=03551322.1.2.3 bus2=03551323.1.2.3 Units=Ft Length=216.6
New Line.03551323_03551324 LineCode=3_#4_CU_C Phases=3 bus1=03551323.1.2.3 bus2=03551324.1.2.3 Units=Ft Length=157.8
New Line.03551323_03551326 LineCode=3_#6_CU_B Phases=2 bus1=03551323.1.2 bus2=03551326.1.2 Units=Ft Length=211
New Line.03551323_03551348 LineCode=3_#6_CU_B Phases=2 bus1=03551323.2.3 bus2=03551348.2.3 Units=Ft Length=116.3
New Line.03551324_03551325 LineCode=3_#4_CU_C Phases=3 bus1=03551324.1.2.3 bus2=03551325.1.2.3 Units=Ft Length=735.7
New Line.03551326_03551327 LineCode=3_#4_CU_B Phases=2 bus1=03551326.1.2 bus2=03551327.1.2 Units=Ft Length=171.5
New Line.03551327_03551333 LineCode=3_#4_CU_B Phases=2 bus1=03551327.1.2 bus2=03551333.1.2 Units=Ft Length=248.1
New Line.03551328A_03551329 LineCode=1C#2SAPECN Phases=1 bus1=03551328A.1 bus2=03551329.1 Units=Ft Length=96
New Line.03551329_03551330 LineCode=#2_CU_PECN Phases=1 bus1=03551329.1 bus2=03551330.1 Units=Ft Length=287
New Line.03551330_03551331 LineCode=#2_CU_PECN Phases=1 bus1=03551330.1 bus2=03551331.1 Units=Ft Length=353
New Line.03551331_03551332 LineCode=#2_CU_PECN Phases=1 bus1=03551331.1 bus2=03551332.1 Units=Ft Length=10
New Line.03551333_03551334 LineCode=3_#4_CU_B Phases=2 bus1=03551333.1.2 bus2=03551334.1.2 Units=Ft Length=41
New Line.03551333_03551335 LineCode=3_#2A5005C Phases=2 bus1=03551333.1.2 bus2=03551335.1.2 Units=Ft Length=148
New Line.03551333_03551346 LineCode=3_#2_AL_B Phases=2 bus1=03551333.1.2 bus2=03551346.1.2 Units=Ft Length=104.3
New Line.03551335_03551336 LineCode=3_#2A5005C Phases=2 bus1=03551335.1.2 bus2=03551336.1.2 Units=Ft Length=125.8
New Line.03551335_03551345 LineCode=3_#2A5005C Phases=2 bus1=03551335.1.2 bus2=03551345.1.2 Units=Ft Length=94
New Line.03551336_03551337 LineCode=3_#2_AL_B Phases=2 bus1=03551336.1.2 bus2=03551337.1.2 Units=Ft Length=42.6
New Line.03551336_03551339 LineCode=3_#2_AL_B Phases=2 bus1=03551336.1.2 bus2=03551339.1.2 Units=Ft Length=287.6
New Line.03551336_03551342 LineCode=3_#2_AL_C Phases=2 bus1=03551336.1.2 bus2=03551342.1.2 Units=Ft Length=95
New Line.03551337A_03551338 LineCode=1C#2SAPECN Phases=2 bus1=03551337A.1.2 bus2=03551338.1.2 Units=Ft Length=310
New Line.03551339_03551340 LineCode=3_#2_AL_B Phases=2 bus1=03551339.1.2 bus2=03551340.1.2 Units=Ft Length=167.9
New Line.03551340_03551341 LineCode=3_#2_AL_B Phases=2 bus1=03551340.1.2 bus2=03551341.1.2 Units=Ft Length=191.1
New Line.03551342_03551343 LineCode=3_#2_AL_B Phases=2 bus1=03551342.1.2 bus2=03551343.1.2 Units=Ft Length=330.5
New Line.03551343_03551344 LineCode=3_#2_AL_B Phases=2 bus1=03551343.1.2 bus2=03551344.1.2 Units=Ft Length=10
New Line.03551346_03551347 LineCode=3_#2_AL_B Phases=2 bus1=03551346.1.2 bus2=03551347.1.2 Units=Ft Length=192
New Line.03551348_03551349 LineCode=3_#6_CU_B Phases=2 bus1=03551348.2.3 bus2=03551349.2.3 Units=Ft Length=204
New Line.03551349_03551350 LineCode=3_#6_CU_B Phases=2 bus1=03551349.2.3 bus2=03551350.2.3 Units=Ft Length=254.2
New Line.03551350_03551356 LineCode=3_#6_CU_B Phases=2 bus1=03551350.2.3 bus2=03551356.2.3 Units=Ft Length=221.9
New Line.03551350A_03551351 LineCode=1C#2SAPECN Phases=2 bus1=03551350A.2.3 bus2=03551351.2.3 Units=Ft Length=205
New Line.03551351_03551352 LineCode=1C#2SAPECN Phases=2 bus1=03551351.2.3 bus2=03551352.2.3 Units=Ft Length=294
New Line.03551352_03551353 LineCode=#2_CU_PECN Phases=2 bus1=03551352.2.3 bus2=03551353.2.3 Units=Ft Length=281
New Line.03551353_03551354 LineCode=#2_CU_PECN Phases=2 bus1=03551353.2.3 bus2=03551354.2.3 Units=Ft Length=166
New Line.03551354_03551355 LineCode=#2_CU_PECN Phases=2 bus1=03551354.2.3 bus2=03551355.2.3 Units=Ft Length=10
New Line.03551356_03551357 LineCode=3_#6_CU_B Phases=2 bus1=03551356.2.3 bus2=03551357.2.3 Units=Ft Length=112.9
New Line.03551357_03551358 LineCode=3_#6_CU_B Phases=2 bus1=03551357.2.3 bus2=03551358.2.3 Units=Ft Length=174.7
New Line.03551358_03551359 LineCode=3_#6_CU_B Phases=2 bus1=03551358.2.3 bus2=03551359.2.3 Units=Ft Length=101.1
New Line.03551359_03551360 LineCode=3_#6_CU_B Phases=2 bus1=03551359.2.3 bus2=03551360.2.3 Units=Ft Length=357.5
New Line.03551359_03551361 LineCode=3_#6_CU_B Phases=2 bus1=03551359.2.3 bus2=03551361.2.3 Units=Ft Length=134.4
New Line.03551361_03551362 LineCode=3_#2_AL_B Phases=2 bus1=03551361.2.3 bus2=03551362.2.3 Units=Ft Length=232.8
New Line.03551361_03551364 LineCode=3_#6_CU_B Phases=2 bus1=03551361.2.3 bus2=03551364.2.3 Units=Ft Length=289.7
New Line.03551362_03551363 LineCode=3_#2_AL_B Phases=2 bus1=03551362.2.3 bus2=03551363.2.3 Units=Ft Length=160
New Line.03551365_03551366 LineCode=3_#4_CU_B Phases=2 bus1=03551365.1.3 bus2=03551366.1.3 Units=Ft Length=10
New Line.03551367A_03551368 LineCode=3_#6_CU_B Phases=2 bus1=03551367A.2.3 bus2=03551368.2.3 Units=Ft Length=194.8
New Line.03551368_03551369 LineCode=3_#6_CU_B Phases=2 bus1=03551368.2.3 bus2=03551369.2.3 Units=Ft Length=530.8
New Line.03551369_03551370 LineCode=3_#6_CU_B Phases=2 bus1=03551369.2.3 bus2=03551370.2.3 Units=Ft Length=302.4
New Line.03551370_03551371 LineCode=3_#2_AL_B Phases=2 bus1=03551370.2.3 bus2=03551371.2.3 Units=Ft Length=177
New Line.03551370_03551390 LineCode=3_#2_AL_B Phases=2 bus1=03551370.2.3 bus2=03551390.2.3 Units=Ft Length=265.3
New Line.03551370_03551391 LineCode=3_#2_AL_B Phases=2 bus1=03551370.2.3 bus2=03551391.2.3 Units=Ft Length=84.1
New Line.03551371_03551372 LineCode=3_#2_AL_B Phases=2 bus1=03551371.2.3 bus2=03551372.2.3 Units=Ft Length=105.7
New Line.03551371_03551389 LineCode=3_#2_AL_B Phases=2 bus1=03551371.2.3 bus2=03551389.2.3 Units=Ft Length=230.9
New Line.03551372_03551373 LineCode=3_#2_AL_B Phases=2 bus1=03551372.2.3 bus2=03551373.2.3 Units=Ft Length=271.3
New Line.03551372_03551387 LineCode=3_#2_AL_B Phases=2 bus1=03551372.2.3 bus2=03551387.2.3 Units=Ft Length=254.5
New Line.03551372_03551388 LineCode=3_#2_AL_B Phases=2 bus1=03551372.2.3 bus2=03551388.2.3 Units=Ft Length=44.4
New Line.03551373_03551374 LineCode=3_#2_AL_B Phases=2 bus1=03551373.2.3 bus2=03551374.2.3 Units=Ft Length=153.1
New Line.03551374_03551375 LineCode=3_#2_AL_B Phases=2 bus1=03551374.2.3 bus2=03551375.2.3 Units=Ft Length=40.2
New Line.03551374_03551378 LineCode=3_#2_AL_B Phases=2 bus1=03551374.2.3 bus2=03551378.2.3 Units=Ft Length=161.5
New Line.03551375_03551376 LineCode=3_#2_AL_B Phases=2 bus1=03551375.2.3 bus2=03551376.2.3 Units=Ft Length=10
New Line.03551375_03551377 LineCode=3_#2_AL_B Phases=2 bus1=03551375.2.3 bus2=03551377.2.3 Units=Ft Length=219
New Line.03551378_03551379 LineCode=3_#2_AL_B Phases=2 bus1=03551378.2.3 bus2=03551379.2.3 Units=Ft Length=181.1
New Line.03551379_03551380 LineCode=3_#2_AL_B Phases=2 bus1=03551379.2.3 bus2=03551380.2.3 Units=Ft Length=150.7
New Line.03551379_03551385 LineCode=3_#2_AL_B Phases=2 bus1=03551379.2.3 bus2=03551385.2.3 Units=Ft Length=43.9
New Line.03551380_03551381 LineCode=3_#2_AL_B Phases=2 bus1=03551380.2.3 bus2=03551381.2.3 Units=Ft Length=85.6
New Line.03551381_03551382 LineCode=3_#2_AL_B Phases=2 bus1=03551381.2.3 bus2=03551382.2.3 Units=Ft Length=106.1
New Line.03551382_03551383 LineCode=3_#2_AL_B Phases=2 bus1=03551382.2.3 bus2=03551383.2.3 Units=Ft Length=181.2
New Line.03551383A_03551384 LineCode=1C#2SAPECN Phases=2 bus1=03551383A.2.3 bus2=03551384.2.3 Units=Ft Length=311
New Line.03551385A_03551386 LineCode=2ALPECNPID Phases=2 bus1=03551385A.2.3 bus2=03551386.2.3 Units=Ft Length=184
New Line.03551392_03551393 LineCode=3_#6_CU_B Phases=2 bus1=03551392.1.3 bus2=03551393.1.3 Units=Ft Length=146.7
New Line.03551394A_03551395 LineCode=3_#6_CU_B Phases=2 bus1=03551394A.2.3 bus2=03551395.2.3 Units=Ft Length=195.3
New Line.035513A_03551301 LineCode=3_#6_CU_B Phases=2 bus1=035513A.1.3 bus2=03551301.1.3 Units=Ft Length=224.2
New Line.035514_035515 LineCode=3_394_AL_C Phases=3 bus1=035514.1.2.3 bus2=035515.1.2.3 Units=Ft Length=390.5
New Line.035515_035516 LineCode=3_394_AL_C Phases=3 bus1=035515.1.2.3 bus2=035516.1.2.3 Units=Ft Length=285.2
New Line.035516_035517 LineCode=3_394_AL_C Phases=3 bus1=035516.1.2.3 bus2=035517.1.2.3 Units=Ft Length=81
New Line.03551601_03551602 LineCode=3_#4_CU_B Phases=2 bus1=03551601.2.3 bus2=03551602.2.3 Units=Ft Length=173.2
New Line.03551601_03551603 LineCode=3_#2A5005C Phases=2 bus1=03551601.2.3 bus2=03551603.2.3 Units=Ft Length=48.8
New Line.03551603_03551604 LineCode=3_#2A5005C Phases=2 bus1=03551603.2.3 bus2=03551604.2.3 Units=Ft Length=153.4
New Line.035516A_03551601 LineCode=3_#2A5005C Phases=2 bus1=035516A.2.3 bus2=03551601.2.3 Units=Ft Length=38.3
New Line.035516A_03551605 LineCode=3_#2_AL_B Phases=2 bus1=035516A.2.3 bus2=03551605.2.3 Units=Ft Length=69.3
New Line.035517_035518 LineCode=3_394_AL_C Phases=3 bus1=035517.1.2.3 bus2=035518.1.2.3 Units=Ft Length=273.8
New Line.03551701_03551702 LineCode=3_#4_CU_B Phases=2 bus1=03551701.1.3 bus2=03551702.1.3 Units=Ft Length=94.6
New Line.03551702_03551703 LineCode=3_#4_CU_B Phases=2 bus1=03551702.1.3 bus2=03551703.1.3 Units=Ft Length=87.6
New Line.03551703_03551704 LineCode=3_#2_AL_B Phases=2 bus1=03551703.1.3 bus2=03551704.1.3 Units=Ft Length=184.3
New Line.03551703_03551708 LineCode=3_#4_CU_B Phases=2 bus1=03551703.1.3 bus2=03551708.1.3 Units=Ft Length=372.2
New Line.03551704_03551705 LineCode=3_#2_AL_B Phases=2 bus1=03551704.1.3 bus2=03551705.1.3 Units=Ft Length=196.9
New Line.03551705_03551706 LineCode=3_#2_AL_B Phases=2 bus1=03551705.1.3 bus2=03551706.1.3 Units=Ft Length=147.3
New Line.03551706_03551707 LineCode=3_#2_AL_B Phases=2 bus1=03551706.1.3 bus2=03551707.1.3 Units=Ft Length=10
New Line.03551708_03551709 LineCode=3_#4_CU_B Phases=2 bus1=03551708.1.3 bus2=03551709.1.3 Units=Ft Length=146.4
New Line.03551708_03551715 LineCode=3_#4_CU_B Phases=2 bus1=03551708.1.3 bus2=03551715.1.3 Units=Ft Length=299.1
New Line.03551708_03551716 LineCode=3_#2_CU_B Phases=2 bus1=03551708.1.3 bus2=03551716.1.3 Units=Ft Length=172.2
New Line.03551709A_03551710 LineCode=1C#2SAPECN Phases=2 bus1=03551709A.1.3 bus2=03551710.1.3 Units=Ft Length=418
New Line.03551710_03551711 LineCode=1C#2SAPECN Phases=2 bus1=03551710.1.3 bus2=03551711.1.3 Units=Ft Length=228
New Line.03551710_03551712 LineCode=1C#2SAPECN Phases=2 bus1=03551710.1.3 bus2=03551712.1.3 Units=Ft Length=525
New Line.03551710_03551714 LineCode=1C#2SAPECN Phases=2 bus1=03551710.1.3 bus2=03551714.1.3 Units=Ft Length=498
New Line.03551712_03551713 LineCode=1C#2SAPECN Phases=2 bus1=03551712.1.3 bus2=03551713.1.3 Units=Ft Length=359
New Line.035517A_03551701 LineCode=3_#4_CU_B Phases=2 bus1=035517A.1.3 bus2=03551701.1.3 Units=Ft Length=234.4
New Line.035518_03551801 LineCode=3_#4_CU_B Phases=2 bus1=035518.1.3 bus2=03551801.1.3 Units=Ft Length=140.7
New Line.035518_03551802 LineCode=3_#4_CU_B Phases=2 bus1=035518.2.3 bus2=03551802.2.3 Units=Ft Length=333.3
New Line.035518_035519 LineCode=3_394_AL_C Phases=3 bus1=035518.1.2.3 bus2=035519.1.2.3 Units=Ft Length=109.2
New Line.03551802_03551803 LineCode=3_#4_CU_B Phases=2 bus1=03551802.2.3 bus2=03551803.2.3 Units=Ft Length=169.3
New Line.035519_035520 LineCode=3_394_AL_C Phases=3 bus1=035519.1.2.3 bus2=035520.1.2.3 Units=Ft Length=287.5
New Line.035520_035521 LineCode=3_394_AL_C Phases=3 bus1=035520.1.2.3 bus2=035521.1.2.3 Units=Ft Length=541.5
New Line.035520A_03552001 LineCode=3_#6_CU_B Phases=2 bus1=035520A.1.3 bus2=03552001.1.3 Units=Ft Length=256.2
New Line.035521_035522 LineCode=3_336_AL_C Phases=3 bus1=035521.1.2.3 bus2=035522.1.2.3 Units=Ft Length=59.2
New Line.035522_035523 LineCode=3_336_AL_C Phases=3 bus1=035522.1.2.3 bus2=035523.1.2.3 Units=Ft Length=159
New Line.035523_035524 LineCode=3_336_AL_C Phases=3 bus1=035523.1.2.3 bus2=035524.1.2.3 Units=Ft Length=315
New Line.035524A_035525 LineCode=3_336_AL_C Phases=3 bus1=035524A.1.2.3 bus2=035525.1.2.3 Units=Ft Length=207
New Line.035525_03552501 LineCode=3_336_AL_C Phases=3 bus1=035525.1.2.3 bus2=03552501.1.2.3 Units=Ft Length=152.1
New Line.035525_035526 LineCode=3_3/0_AL_C Phases=3 bus1=035525.1.2.3 bus2=035526.1.2.3 Units=Ft Length=70.2
New Line.03552501_03552502 LineCode=3_336_AL_C Phases=3 bus1=03552501.1.2.3 bus2=03552502.1.2.3 Units=Ft Length=175.3
New Line.03552502A_03552503 LineCode=3_336_AL_C Phases=3 bus1=03552502A.1.2.3 bus2=03552503.1.2.3 Units=Ft Length=173.9
New Line.03552503_03552510 LineCode=3_336_AL_C Phases=3 bus1=03552503.1.2.3 bus2=03552510.1.2.3 Units=Ft Length=310.7
New Line.03552503A_03552504 LineCode=2/0AL_PECN Phases=3 bus1=03552503A.1.2.3 bus2=03552504.1.2.3 Units=Ft Length=87
New Line.03552504_03552505 LineCode=1C#2SAPECN Phases=1 bus1=03552504.2 bus2=03552505.2 Units=Ft Length=249
New Line.03552504_03552507 LineCode=1C#2SAPECN Phases=1 bus1=03552504.3 bus2=03552507.3 Units=Ft Length=159
New Line.03552504_03552509 LineCode=1C#2SAPECN Phases=1 bus1=03552504.1 bus2=03552509.1 Units=Ft Length=114
New Line.03552505_03552506 LineCode=1C#2SAPECN Phases=1 bus1=03552505.2 bus2=03552506.2 Units=Ft Length=211
New Line.03552507_03552508 LineCode=1C#2SAPECN Phases=1 bus1=03552507.3 bus2=03552508.3 Units=Ft Length=129
New Line.03552510_03552513 LineCode=3_336_AL_C Phases=3 bus1=03552510.1.2.3 bus2=03552513.1.2.3 Units=Ft Length=483.2
New Line.03552510A_03552511 LineCode=3_#2_AL_C Phases=3 bus1=03552510A.1.2.3 bus2=03552511.1.2.3 Units=Ft Length=276
New Line.03552511A_03552512 LineCode=2/0AL_PECN Phases=3 bus1=03552511A.1.2.3 bus2=03552512.1.2.3 Units=Ft Length=264
New Line.03552513_03552514 LineCode=3_336_AL_C Phases=3 bus1=03552513.1.2.3 bus2=03552514.1.2.3 Units=Ft Length=124.9
New Line.03552514_03552545 LineCode=3_336_AL_C Phases=3 bus1=03552514.1.2.3 bus2=03552545.1.2.3 Units=Ft Length=362.3
New Line.03552514A_03552515 LineCode=2/0AL_PECN Phases=3 bus1=03552514A.1.2.3 bus2=03552515.1.2.3 Units=Ft Length=170
New Line.03552515_03552516 LineCode=1C#2CUPECN Phases=1 bus1=03552515.3 bus2=03552516.3 Units=Ft Length=330
New Line.03552515_03552517 LineCode=1C#2CUPECN Phases=1 bus1=03552515.3 bus2=03552517.3 Units=Ft Length=72
New Line.03552515_03552518 LineCode=#4_CU_PECN Phases=2 bus1=03552515.1.2 bus2=03552518.1.2 Units=Ft Length=310
New Line.03552515_03552532 LineCode=1C#2SAPECN Phases=3 bus1=03552515.1.2.3 bus2=03552532.1.2.3 Units=Ft Length=221
New Line.03552518_03552519 LineCode=#4_CU_PECN Phases=1 bus1=03552518.2 bus2=03552519.2 Units=Ft Length=168
New Line.03552518_03552522 LineCode=#4_CU_PECN Phases=2 bus1=03552518.1.2 bus2=03552522.1.2 Units=Ft Length=197
New Line.03552519_03552520 LineCode=#4_CU_PECN Phases=1 bus1=03552519.2 bus2=03552520.2 Units=Ft Length=236
New Line.03552520_03552521 LineCode=#4_CU_PECN Phases=1 bus1=03552520.2 bus2=03552521.2 Units=Ft Length=154
New Line.03552522_03552523 LineCode=1C#2SAPECN Phases=1 bus1=03552522.2 bus2=03552523.2 Units=Ft Length=433
New Line.03552522_03552524 LineCode=1C#2SAPECN Phases=1 bus1=03552522.1 bus2=03552524.1 Units=Ft Length=181
New Line.03552524_03552525 LineCode=#4_CU_PECN Phases=1 bus1=03552524.1 bus2=03552525.1 Units=Ft Length=130
New Line.03552525_03552526 LineCode=2ALPECNPID Phases=1 bus1=03552525.1 bus2=03552526.1 Units=Ft Length=258
New Line.03552525_03552530 LineCode=#2_CU_PECN Phases=1 bus1=03552525.1 bus2=03552530.1 Units=Ft Length=202
New Line.03552526_03552527 LineCode=#4_CU_PECN Phases=1 bus1=03552526.1 bus2=03552527.1 Units=Ft Length=194
New Line.03552527_03552528 LineCode=1C#2SAPECN Phases=1 bus1=03552527.1 bus2=03552528.1 Units=Ft Length=314
New Line.03552528_03552529 LineCode=1C#2SAPECN Phases=1 bus1=03552528.1 bus2=03552529.1 Units=Ft Length=452
New Line.03552530_03552531 LineCode=1C#2CUPECN Phases=1 bus1=03552530.1 bus2=03552531.1 Units=Ft Length=88
New Line.03552532_03552533 LineCode=2/0AL_PECN Phases=3 bus1=03552532.1.2.3 bus2=03552533.1.2.3 Units=Ft Length=439
New Line.03552532_03552537 LineCode=2ALPECNPID Phases=1 bus1=03552532.2 bus2=03552537.2 Units=Ft Length=52
New Line.03552532_03552541 LineCode=2ALPECNPID Phases=1 bus1=03552532.3 bus2=03552541.3 Units=Ft Length=79
New Line.03552533_03552534 LineCode=2ALPECNPID Phases=1 bus1=03552533.1 bus2=03552534.1 Units=Ft Length=127
New Line.03552534A_03552535 LineCode=2ALPECNPID Phases=1 bus1=03552534A.1 bus2=03552535.1 Units=Ft Length=97
New Line.03552535_03552536 LineCode=2ALPECNPID Phases=1 bus1=03552535.1 bus2=03552536.1 Units=Ft Length=267
New Line.03552537A_03552538 LineCode=2ALPECNPID Phases=1 bus1=03552537A.2 bus2=03552538.2 Units=Ft Length=244
New Line.03552537A_03552540 LineCode=2ALPECNPID Phases=1 bus1=03552537A.2 bus2=03552540.2 Units=Ft Length=332
New Line.03552538_03552539 LineCode=2ALPECNPID Phases=1 bus1=03552538.2 bus2=03552539.2 Units=Ft Length=326
New Line.03552541A_03552542 LineCode=2ALPECNPID Phases=1 bus1=03552541A.3 bus2=03552542.3 Units=Ft Length=121
New Line.03552542_03552543 LineCode=2ALPECNPID Phases=1 bus1=03552542.3 bus2=03552543.3 Units=Ft Length=284
New Line.03552543_03552544 LineCode=2ALPECNPID Phases=1 bus1=03552543.3 bus2=03552544.3 Units=Ft Length=216
New Line.03552545_03552546 LineCode=3_336_AL_C Phases=3 bus1=03552545.1.2.3 bus2=03552546.1.2.3 Units=Ft Length=148
New Line.03552546_03552547 LineCode=3_336_AL_C Phases=3 bus1=03552546.1.2.3 bus2=03552547.1.2.3 Units=Ft Length=86.8
New Line.03552547_03552553 LineCode=3_336_AL_C Phases=3 bus1=03552547.1.2.3 bus2=03552553.1.2.3 Units=Ft Length=279.2
New Line.03552547A_03552548 LineCode=2ALPECNPID Phases=1 bus1=03552547A.3 bus2=03552548.3 Units=Ft Length=75
New Line.03552548_03552549 LineCode=2ALPECNPID Phases=1 bus1=03552548.3 bus2=03552549.3 Units=Ft Length=270
New Line.03552549_03552550 LineCode=2ALPECNPID Phases=1 bus1=03552549.3 bus2=03552550.3 Units=Ft Length=110
New Line.03552549_03552551 LineCode=2ALPECNPID Phases=1 bus1=03552549.3 bus2=03552551.3 Units=Ft Length=102
New Line.03552551_03552552 LineCode=2ALPECNPID Phases=1 bus1=03552551.3 bus2=03552552.3 Units=Ft Length=81
New Line.03552553_03552571 LineCode=3_336_AL_C Phases=3 bus1=03552553.1.2.3 bus2=03552571.1.2.3 Units=Ft Length=196
New Line.03552553A_03552554 LineCode=3_#6_CU_B Phases=2 bus1=03552553A.2.3 bus2=03552554.2.3 Units=Ft Length=229
New Line.03552554_03552555 LineCode=3_#6_CU_B Phases=2 bus1=03552554.2.3 bus2=03552555.2.3 Units=Ft Length=199
New Line.03552555_03552561 LineCode=3_#6_CU_B Phases=2 bus1=03552555.2.3 bus2=03552561.2.3 Units=Ft Length=238
New Line.03552555_03552569 LineCode=3_#6_CU_C Phases=2 bus1=03552555.2.3 bus2=03552569.2.3 Units=Ft Length=82.5
New Line.03552555A_03552556 LineCode=1C#2SAPECN Phases=1 bus1=03552555A.2 bus2=03552556.2 Units=Ft Length=204
New Line.03552556_03552557 LineCode=1C#2SAPECN Phases=1 bus1=03552556.2 bus2=03552557.2 Units=Ft Length=256
...
New Transformer.355_1686B Phases=1 Windings=2 Buses=[03551328.1 03551328A.1] Conns=[wye wye] kVs=[12  12] kVAs=[20000  20000] %Noloadloss=0 %imag=0
New Transformer.ALPINE Phases=3 Windings=2 Buses=[SourceBus 0355] Conns=[wye wye] kVs=[12  12] kVAs=[20000  20000] %Noloadloss=0 %imag=0 sub=y


! Let DSS estimate the voltage bases
Set voltagebases=[12 12]
Calcvoltagebases     ! This also establishes the bus list

Buscoords test_buscoords.csv


set maxiterations=1000
